McPAT (version 1.3 of Feb, 2015) is computing the target processor...
 

McPAT (version 1.3 of Feb, 2015) results  (current print level is 5)
*****************************************************************************************
  Technology 45 nm
  Using Long Channel Devices When Appropriate
  Interconnect metal projection= conservative interconnect technology projection
  Core clock Rate(MHz) 2

*****************************************************************************************
Processor: 
  Area = 13.7971 mm^2
  Peak Power = 0.911598 W
  Total Leakage = 0.111753 W
  Peak Dynamic = 0.799845 W
  Subthreshold Leakage = 0.10236 W
  Gate Leakage = 0.00939272 W
  Runtime Dynamic = 0.00488737 W

  Total Cores: 1 cores 
  Device Type= ITRS low standby power device type
    Area = 12.4767 mm^2
    Peak Dynamic = 0.00902248 W
    Subthreshold Leakage = 0.00072516 W
    Gate Leakage = 2.23632e-05 W
    Runtime Dynamic = 0.00488737 W

  Total L2s: 
  Device Type= ITRS high performance device type
    Area = 1.32037 mm^2
    Peak Dynamic = 0.790822 W
    Subthreshold Leakage = 0.101635 W
    Gate Leakage = 0.00937035 W
    Runtime Dynamic = 3.0888e-12 W

*****************************************************************************************
Core:
      Area = 12.4767 mm^2
      Peak Dynamic = 0.00902248 W
      Subthreshold Leakage = 0.00072516 W
      Gate Leakage = 2.23632e-05 W
      Runtime Dynamic = 0.00488737 W

      Instruction Fetch Unit:
        Area = 2.43605 mm^2
        Peak Dynamic = 0.00220876 W
        Subthreshold Leakage = 0.000175266 W
        Gate Leakage = 5.15402e-06 W
        Runtime Dynamic = 0.000971816 W

          Instruction Cache:
            Area = 2.05048 mm^2
            Peak Dynamic = 0.00182393 W
            Subthreshold Leakage = 0.000147336 W
            Gate Leakage = 4.62541e-06 W
            Runtime Dynamic = 0.000789973 W

          Branch Target Buffer:
            Area = 0.268529 mm^2
            Peak Dynamic = 4.14246e-05 W
            Subthreshold Leakage = 1.36774e-05 W
            Gate Leakage = 2.25936e-07 W
            Runtime Dynamic = 2.35096e-05 W

          Branch Predictor:
            Area = 0.106668 mm^2
            Peak Dynamic = 4.35144e-05 W
            Subthreshold Leakage = 1.18123e-05 W
            Gate Leakage = 2.17239e-07 W
            Runtime Dynamic = 9.44985e-06 W

              Global Predictor:
                Area = 0.0379885 mm^2
                Peak Dynamic = 1.24075e-05 W
                Subthreshold Leakage = 4.29679e-06 W
                Gate Leakage = 7.59186e-08 W
                Runtime Dynamic = 2.81053e-06 W

              Local Predictor:
              L1_Local Predictor:
                Area = 0.02029 mm^2
                Peak Dynamic = 1.07802e-05 W
                Subthreshold Leakage = 2.17449e-06 W
                Gate Leakage = 4.20863e-08 W
                Runtime Dynamic = 2.52144e-06 W

              L2_Local Predictor:
                Area = 0.00935668 mm^2
                Peak Dynamic = 5.30841e-06 W
                Subthreshold Leakage = 9.63709e-07 W
                Gate Leakage = 2.14105e-08 W
                Runtime Dynamic = 1.24156e-06 W

              Chooser:
                Area = 0.0379885 mm^2
                Peak Dynamic = 1.24075e-05 W
                Subthreshold Leakage = 4.29679e-06 W
                Gate Leakage = 7.59186e-08 W
                Runtime Dynamic = 2.81053e-06 W

              RAS:
                Area = 0.00104463 mm^2
                Peak Dynamic = 2.61091e-06 W
                Subthreshold Leakage = 8.05547e-08 W
                Gate Leakage = 1.90485e-09 W
                Runtime Dynamic = 6.57816e-08 W

          Instruction Buffer:
            Area = 0.005023 mm^2
            Peak Dynamic = 0.000180568 W
            Subthreshold Leakage = 5.50055e-07 W
            Gate Leakage = 1.16685e-08 W
            Runtime Dynamic = 4.07825e-05 W

          Instruction Decoder:
            Area = 0.00283629 mm^2
            Peak Dynamic = 0.000116229 W
            Subthreshold Leakage = 1.45962e-06 W
            Gate Leakage = 3.56932e-08 W
            Runtime Dynamic = 0.000105004 W

      Renaming Unit:
        Area = 0.0276242 mm^2
        Peak Dynamic = 4.35606e-05 W
        Subthreshold Leakage = 1.13837e-06 W
        Gate Leakage = 6.2531e-08 W
        Runtime Dynamic = 2.09549e-05 W

          Int Front End RAT with 1 internal checkpoints:
            Area = 0.00256956 mm^2
            Peak Dynamic = 5.32153e-06 W
            Subthreshold Leakage = 1.3637e-07 W
            Gate Leakage = 5.43697e-09 W
            Runtime Dynamic = 2.61674e-06 W

          FP Front End RAT with 1 internal checkpoints:
            Area = 0.00619229 mm^2
            Peak Dynamic = 1.23983e-05 W
            Subthreshold Leakage = 1.83765e-07 W
            Gate Leakage = 7.13735e-09 W
            Runtime Dynamic = 1.37131e-08 W

          Free List:
            Area = 0.00623529 mm^2
            Peak Dynamic = 6.17099e-06 W
            Subthreshold Leakage = 1.756e-07 W
            Gate Leakage = 5.42842e-09 W
            Runtime Dynamic = 5.9077e-06 W

          FP Free List:
            Area = 0.0101126 mm^2
            Peak Dynamic = 7.28126e-06 W
            Subthreshold Leakage = 2.11732e-07 W
            Gate Leakage = 6.45245e-09 W
            Runtime Dynamic = 2.8208e-08 W

      Load Store Unit:
        Area = 8.0735 mm^2
        Peak Dynamic = 0.00464049 W
        Subthreshold Leakage = 0.000294002 W
        Gate Leakage = 9.03366e-06 W
        Runtime Dynamic = 0.00359173 W

          Data Cache:
            Area = 7.30065 mm^2
            Peak Dynamic = 0.0045845 W
            Subthreshold Leakage = 0.00028918 W
            Gate Leakage = 8.85209e-06 W
            Runtime Dynamic = 0.00351306 W

          LoadQ:
            Area = 0.0183036 mm^2
            Peak Dynamic = 2.64483e-05 W
            Subthreshold Leakage = 2.19555e-06 W
            Gate Leakage = 7.17468e-08 W
            Runtime Dynamic = 2.51931e-05 W

          StoreQ:
            Area = 0.0183036 mm^2
            Peak Dynamic = 2.64483e-05 W
            Subthreshold Leakage = 2.19555e-06 W
            Gate Leakage = 7.17468e-08 W
            Runtime Dynamic = 5.03863e-05 W

      Memory Management Unit:
        Area = 0.0345126 mm^2
        Peak Dynamic = 2.31706e-05 W
        Subthreshold Leakage = 3.90698e-06 W
        Runtime Dynamic = 7.74283e-06 W

          Itlb:
            Area = 0.015999 mm^2
            Peak Dynamic = 7.7139e-06 W
            Subthreshold Leakage = 1.73804e-06 W
            Gate Leakage = 5.14476e-08 W
            Runtime Dynamic = 0 W

          Dtlb:
            Area = 0.015999 mm^2
            Peak Dynamic = 7.7139e-06 W
            Subthreshold Leakage = 1.73804e-06 W
            Gate Leakage = 5.14476e-08 W
            Runtime Dynamic = 0 W

      Execution Unit:
        Area = 1.84843 mm^2
        Peak Dynamic = 0.0021065 W
        Subthreshold Leakage = 0.000237837 W
        Runtime Dynamic = 0.000295119 W

          Register Files:
            Area = 0.360995 mm^2
            Peak Dynamic = 0.000910651 W
            Subthreshold Leakage = 7.54476e-06 W
            Gate Leakage = 1.81831e-07 W
            Runtime Dynamic = 7.43726e-05 W

              Integer RF:
                Area = 0.180498 mm^2
                Peak Dynamic = 0.000722865 W
                Subthreshold Leakage = 3.77238e-06 W
                Gate Leakage = 9.09153e-08 W
                Runtime Dynamic = 7.40248e-05 W

              Floating Point RF:
                Area = 0.180498 mm^2
                Peak Dynamic = 0.000187786 W
                Subthreshold Leakage = 3.77238e-06 W
                Gate Leakage = 9.09153e-08 W
                Runtime Dynamic = 3.47803e-07 W

          Instruction Scheduler:
            Area = 0.0894553 mm^2
            Peak Dynamic = 0.000514444 W
            Subthreshold Leakage = 5.45287e-06 W
            Gate Leakage = 1.78045e-07 W
            Runtime Dynamic = 0.000161011 W

              Instruction Window:
                Area = 0.0300992 mm^2
                Peak Dynamic = 0.000192827 W
                Subthreshold Leakage = 1.98443e-06 W
                Gate Leakage = 6.85549e-08 W
                Runtime Dynamic = 8.92791e-05 W

              FP Instruction Window:
                Area = 0.0281803 mm^2
                Peak Dynamic = 0.000167451 W
                Subthreshold Leakage = 2.60692e-06 W
                Gate Leakage = 8.76927e-08 W
                Runtime Dynamic = 4.24085e-07 W

              ROB:
                Area = 0.0311759 mm^2
                Peak Dynamic = 0.000154166 W
                Subthreshold Leakage = 8.61519e-07 W
                Gate Leakage = 2.17972e-08 W
                Runtime Dynamic = 7.13079e-05 W

          Integer ALUs (Count: 1 ):
            Area = 0.0392392 mm^2
            Peak Dynamic = 5.04463e-05 W
            Subthreshold Leakage = 1.80366e-05 W
            Gate Leakage = 5.75405e-07 W
            Runtime Dynamic = 4.67298e-05 W

          Floating Point Units (FPUs) (Count: 1 ):
            Area = 1.22925 mm^2
            Peak Dynamic = 4.54017e-05 W
            Subthreshold Leakage = 0.000141258 W
            Gate Leakage = 4.50644e-06 W
            Runtime Dynamic = 6.17102e-07 W

          Complex ALUs (Mul/Div) (Count: 1 ):
            Area = 0.117718 mm^2
            Peak Dynamic = 3.02678e-05 W
            Subthreshold Leakage = 5.41098e-05 W
            Gate Leakage = 1.72622e-06 W
            Runtime Dynamic = 0 W

          Results Broadcast Bus:
            Area Overhead = 0.00925684 mm^2
            Peak Dynamic = 0.000542902 W
            Subthreshold Leakage = 1.10037e-05 W
            Gate Leakage = 3.51041e-07 W
            Runtime Dynamic = 0 W

*****************************************************************************************
L2
      Area = 1.32037 mm^2
      Peak Dynamic = 0.790822 W
      Subthreshold Leakage = 0.101635 W
      Gate Leakage = 0.00937035 W
      Runtime Dynamic = 3.0888e-12 W

*****************************************************************************************
