McPAT (version 1.3 of Feb, 2015) is computing the target processor...
 

McPAT (version 1.3 of Feb, 2015) results  (current print level is 5)
*****************************************************************************************
  Technology 45 nm
  Using Long Channel Devices When Appropriate
  Interconnect metal projection= conservative interconnect technology projection
  Core clock Rate(MHz) 2

*****************************************************************************************
Processor: 
  Area = 16.0415 mm^2
  Peak Power = 0.966915 W
  Total Leakage = 0.145068 W
  Peak Dynamic = 0.821847 W
  Subthreshold Leakage = 0.135339 W
  Gate Leakage = 0.0097295 W
  Runtime Dynamic = 0.00534962 W

  Total Cores: 1 cores 
  Device Type= ITRS low standby power device type
    Area = 14.314 mm^2
    Peak Dynamic = 0.0137481 W
    Subthreshold Leakage = 0.000829063 W
    Gate Leakage = 2.44466e-05 W
    Runtime Dynamic = 0.00534962 W

  Total L2s: 
  Device Type= ITRS high performance device type
    Area = 1.72754 mm^2
    Peak Dynamic = 0.808098 W
    Subthreshold Leakage = 0.13451 W
    Gate Leakage = 0.00970506 W
    Runtime Dynamic = 3.22325e-12 W

*****************************************************************************************
Core:
      Area = 14.314 mm^2
      Peak Dynamic = 0.0137481 W
      Subthreshold Leakage = 0.000829063 W
      Gate Leakage = 2.44466e-05 W
      Runtime Dynamic = 0.00534962 W

      Instruction Fetch Unit:
        Area = 2.58101 mm^2
        Peak Dynamic = 0.00327624 W
        Subthreshold Leakage = 0.00019935 W
        Gate Leakage = 5.53837e-06 W
        Runtime Dynamic = 0.00106885 W

          Instruction Cache:
            Area = 2.18053 mm^2
            Peak Dynamic = 0.00183638 W
            Subthreshold Leakage = 0.000169611 W
            Gate Leakage = 4.94853e-06 W
            Runtime Dynamic = 0.000783661 W

          Branch Target Buffer:
            Area = 0.268529 mm^2
            Peak Dynamic = 4.14246e-05 W
            Subthreshold Leakage = 1.36774e-05 W
            Gate Leakage = 2.25936e-07 W
            Runtime Dynamic = 2.34565e-05 W

          Branch Predictor:
            Area = 0.106668 mm^2
            Peak Dynamic = 4.35144e-05 W
            Subthreshold Leakage = 1.18123e-05 W
            Gate Leakage = 2.17239e-07 W
            Runtime Dynamic = 9.27982e-06 W

              Global Predictor:
                Area = 0.0379885 mm^2
                Peak Dynamic = 1.24075e-05 W
                Subthreshold Leakage = 4.29679e-06 W
                Gate Leakage = 7.59186e-08 W
                Runtime Dynamic = 2.76039e-06 W

              Local Predictor:
              L1_Local Predictor:
                Area = 0.02029 mm^2
                Peak Dynamic = 1.07802e-05 W
                Subthreshold Leakage = 2.17449e-06 W
                Gate Leakage = 4.20863e-08 W
                Runtime Dynamic = 2.47424e-06 W

              L2_Local Predictor:
                Area = 0.00935668 mm^2
                Peak Dynamic = 5.30841e-06 W
                Subthreshold Leakage = 9.63709e-07 W
                Gate Leakage = 2.14105e-08 W
                Runtime Dynamic = 1.21832e-06 W

              Chooser:
                Area = 0.0379885 mm^2
                Peak Dynamic = 1.24075e-05 W
                Subthreshold Leakage = 4.29679e-06 W
                Gate Leakage = 7.59186e-08 W
                Runtime Dynamic = 2.76039e-06 W

              RAS:
                Area = 0.00104463 mm^2
                Peak Dynamic = 2.61091e-06 W
                Subthreshold Leakage = 8.05547e-08 W
                Gate Leakage = 1.90485e-09 W
                Runtime Dynamic = 6.64756e-08 W

          Instruction Buffer:
            Area = 0.0178181 mm^2
            Peak Dynamic = 0.00123299 W
            Subthreshold Leakage = 1.99724e-06 W
            Gate Leakage = 4.09192e-08 W
            Runtime Dynamic = 0.00014067 W

          Instruction Decoder:
            Area = 0.00283629 mm^2
            Peak Dynamic = 0.000116229 W
            Subthreshold Leakage = 1.45962e-06 W
            Gate Leakage = 3.56932e-08 W
            Runtime Dynamic = 0.000106083 W

      Renaming Unit:
        Area = 0.0297355 mm^2
        Peak Dynamic = 5.39629e-05 W
        Subthreshold Leakage = 1.50019e-06 W
        Gate Leakage = 9.45021e-08 W
        Runtime Dynamic = 3.14133e-05 W

          Int Front End RAT with 1 internal checkpoints:
            Area = 0.00256956 mm^2
            Peak Dynamic = 5.32153e-06 W
            Subthreshold Leakage = 1.3637e-07 W
            Gate Leakage = 5.43697e-09 W
            Runtime Dynamic = 2.63428e-06 W

          FP Front End RAT with 1 internal checkpoints:
            Area = 0.00619229 mm^2
            Peak Dynamic = 1.23983e-05 W
            Subthreshold Leakage = 1.83765e-07 W
            Gate Leakage = 7.13735e-09 W
            Runtime Dynamic = 1.38547e-08 W

          Free List:
            Area = 0.00623529 mm^2
            Peak Dynamic = 6.17099e-06 W
            Subthreshold Leakage = 1.756e-07 W
            Gate Leakage = 5.42842e-09 W
            Runtime Dynamic = 5.9459e-06 W

          FP Free List:
            Area = 0.0101126 mm^2
            Peak Dynamic = 7.28126e-06 W
            Subthreshold Leakage = 2.11732e-07 W
            Gate Leakage = 6.45245e-09 W
            Runtime Dynamic = 2.84931e-08 W

      Load Store Unit:
        Area = 8.72035 mm^2
        Peak Dynamic = 0.00464718 W
        Subthreshold Leakage = 0.00035177 W
        Gate Leakage = 1.00178e-05 W
        Runtime Dynamic = 0.00363579 W

          Data Cache:
            Area = 7.88678 mm^2
            Peak Dynamic = 0.00458859 W
            Subthreshold Leakage = 0.000346587 W
            Gate Leakage = 9.80426e-06 W
            Runtime Dynamic = 0.00355372 W

          LoadQ:
            Area = 0.0183036 mm^2
            Peak Dynamic = 2.64483e-05 W
            Subthreshold Leakage = 2.19555e-06 W
            Gate Leakage = 7.17468e-08 W
            Runtime Dynamic = 2.54574e-05 W

          StoreQ:
            Area = 0.0183036 mm^2
            Peak Dynamic = 2.64483e-05 W
            Subthreshold Leakage = 2.19555e-06 W
            Gate Leakage = 7.17468e-08 W
            Runtime Dynamic = 5.09148e-05 W

      Memory Management Unit:
        Area = 0.0366239 mm^2
        Peak Dynamic = 2.96721e-05 W
        Subthreshold Leakage = 4.2688e-06 W
        Runtime Dynamic = 1.42443e-05 W

          Itlb:
            Area = 0.015999 mm^2
            Peak Dynamic = 7.7139e-06 W
            Subthreshold Leakage = 1.73804e-06 W
            Gate Leakage = 5.14476e-08 W
            Runtime Dynamic = 0 W

          Dtlb:
            Area = 0.015999 mm^2
            Peak Dynamic = 7.7139e-06 W
            Subthreshold Leakage = 1.73804e-06 W
            Gate Leakage = 5.14476e-08 W
            Runtime Dynamic = 0 W

      Execution Unit:
        Area = 2.88967 mm^2
        Peak Dynamic = 0.00574104 W
        Subthreshold Leakage = 0.000259165 W
        Runtime Dynamic = 0.000599332 W

          Register Files:
            Area = 1.1661 mm^2
            Peak Dynamic = 0.00306422 W
            Subthreshold Leakage = 1.72955e-05 W
            Gate Leakage = 4.49379e-07 W
            Runtime Dynamic = 0.000131111 W

              Integer RF:
                Area = 0.583052 mm^2
                Peak Dynamic = 0.00246567 W
                Subthreshold Leakage = 8.64776e-06 W
                Gate Leakage = 2.2469e-07 W
                Runtime Dynamic = 0.000130497 W

              Floating Point RF:
                Area = 0.583052 mm^2
                Peak Dynamic = 0.000598544 W
                Subthreshold Leakage = 8.64776e-06 W
                Gate Leakage = 2.2469e-07 W
                Runtime Dynamic = 6.13479e-07 W

          Instruction Scheduler:
            Area = 0.320218 mm^2
            Peak Dynamic = 0.00177567 W
            Subthreshold Leakage = 1.28675e-05 W
            Gate Leakage = 4.082e-07 W
            Runtime Dynamic = 0.0003977 W

              Instruction Window:
                Area = 0.151035 mm^2
                Peak Dynamic = 0.00103561 W
                Subthreshold Leakage = 6.945e-06 W
                Gate Leakage = 2.27886e-07 W
                Runtime Dynamic = 0.000262568 W

              FP Instruction Window:
                Area = 0.0402345 mm^2
                Peak Dynamic = 0.000279667 W
                Subthreshold Leakage = 3.50081e-06 W
                Gate Leakage = 1.18831e-07 W
                Runtime Dynamic = 6.62047e-07 W

              ROB:
                Area = 0.128948 mm^2
                Peak Dynamic = 0.000460389 W
                Subthreshold Leakage = 2.42171e-06 W
                Gate Leakage = 6.14836e-08 W
                Runtime Dynamic = 0.000134469 W

          Integer ALUs (Count: 1 ):
            Area = 0.0392392 mm^2
            Peak Dynamic = 5.04463e-05 W
            Subthreshold Leakage = 1.80366e-05 W
            Gate Leakage = 5.75405e-07 W
            Runtime Dynamic = 4.71091e-05 W

          Floating Point Units (FPUs) (Count: 1 ):
            Area = 1.22925 mm^2
            Peak Dynamic = 4.54017e-05 W
            Subthreshold Leakage = 0.000141258 W
            Gate Leakage = 4.50644e-06 W
            Runtime Dynamic = 6.21976e-07 W

          Complex ALUs (Mul/Div) (Count: 1 ):
            Area = 0.117718 mm^2
            Peak Dynamic = 3.02678e-05 W
            Subthreshold Leakage = 5.41098e-05 W
            Gate Leakage = 1.72622e-06 W
            Runtime Dynamic = 0 W

          Results Broadcast Bus:
            Area Overhead = 0.0125208 mm^2
            Peak Dynamic = 0.000752253 W
            Subthreshold Leakage = 1.48041e-05 W
            Gate Leakage = 4.72282e-07 W
            Runtime Dynamic = 0 W

*****************************************************************************************
L2
      Area = 1.72754 mm^2
      Peak Dynamic = 0.808098 W
      Subthreshold Leakage = 0.13451 W
      Gate Leakage = 0.00970506 W
      Runtime Dynamic = 3.22325e-12 W

*****************************************************************************************
